Version 4
SHEET 1 880 680
WIRE 256 -112 240 -112
WIRE 208 0 160 0
WIRE 512 0 288 0
WIRE 160 64 160 0
WIRE 288 64 160 64
WIRE 368 64 352 64
WIRE 256 128 256 -112
WIRE 0 144 -144 144
WIRE 160 144 160 64
WIRE 160 144 80 144
WIRE 224 144 160 144
WIRE 368 160 368 64
WIRE 368 160 288 160
WIRE 400 160 368 160
WIRE 512 160 512 0
WIRE 512 160 464 160
WIRE 592 160 512 160
WIRE 592 256 592 160
WIRE 256 352 256 192
WIRE 256 352 240 352
FLAG 160 -112 0
FLAG 592 336 0
FLAG -224 144 0
FLAG 224 176 0
FLAG 160 352 0
SYMBOL OpAmps\\AD820 256 96 R0
SYMATTR InstName U1
SYMBOL voltage 256 -112 R90
WINDOW 0 -32 56 VBottom 2
WINDOW 3 32 56 VTop 2
WINDOW 123 0 0 Left 0
WINDOW 39 0 0 Left 0
SYMATTR InstName V1
SYMATTR Value 5
SYMBOL res 96 128 R90
WINDOW 0 0 56 VBottom 2
WINDOW 3 32 56 VTop 2
SYMATTR InstName R1
SYMATTR Value 9.1k
SYMBOL res 304 -16 R90
WINDOW 0 0 56 VBottom 2
WINDOW 3 32 56 VTop 2
SYMATTR InstName R2
SYMATTR Value 9.1k
SYMBOL res 608 352 R180
WINDOW 0 36 76 Left 2
WINDOW 3 36 40 Left 2
SYMATTR InstName R3
SYMATTR Value 1k
SYMBOL diode 400 176 R270
WINDOW 0 32 32 VTop 2
WINDOW 3 0 32 VBottom 2
SYMATTR InstName D1
SYMATTR Value 1N914
SYMBOL diode 288 80 R270
WINDOW 0 32 32 VTop 2
WINDOW 3 0 32 VBottom 2
SYMATTR InstName D2
SYMATTR Value 1N914
SYMBOL voltage -128 144 R90
WINDOW 0 -32 56 VBottom 2
WINDOW 3 32 56 VTop 2
WINDOW 123 0 0 Left 0
WINDOW 39 0 0 Left 0
SYMATTR InstName V2
SYMATTR Value SINE(0 1 200 0)
SYMBOL voltage 144 352 R270
WINDOW 0 -32 56 VBottom 2
WINDOW 3 32 56 VTop 2
WINDOW 123 0 0 Left 0
WINDOW 39 0 0 Left 0
SYMATTR InstName V3
SYMATTR Value 5
TEXT -292 360 Left 2 !.tran 0 0.25 0 0.01
